Circuit: * C:\Program Files (x86)\LTC\LTspiceIV\projects\Hi-Fi Portable Amplifier.asc

Early termination of direct N-R iteration.
Direct Newton iteration failed to find .op point.  (Use ".option noopiter" to skip.)
Starting Gmin stepping
Gmin = 10
vernier = 0.5
vernier = 0.25
vernier = 0.125
vernier = 0.0625
Gmin = 7.87692
vernier = 0.03125
vernier = 0.015625
vernier = 0.0078125
vernier = 0.00390625
Gmin = 7.80824
vernier = 0.00195313
vernier = 0.000976563
vernier = 0.000488281
Gmin = 0
Gmin stepping failed

Starting source stepping with srcstepmethod=0
Source Step = 3.0303%
Source Step = 33.3333%
Source Step = 63.6364%
Source Step = 93.9394%
Source stepping succeeded in finding the operating point.

N-Period=1
Fourier components of V(output)
DC component:0.355779

Harmonic	Frequency	 Fourier 	Normalized	 Phase  	Normalized
 Number 	  [Hz]   	Component	 Component	[degree]	Phase [deg]
    1   	1.000e+03	6.499e+00	1.000e+00	    0.34°	    0.00°
    2   	2.000e+03	7.962e-05	1.225e-05	 -178.47°	 -178.81°
    3   	3.000e+03	1.590e-03	2.447e-04	  -93.01°	  -93.35°
    4   	4.000e+03	1.529e-04	2.353e-05	    3.60°	    3.26°
    5   	5.000e+03	1.546e-03	2.379e-04	  -88.97°	  -89.31°
    6   	6.000e+03	3.165e-04	4.870e-05	    5.18°	    4.84°
    7   	7.000e+03	1.478e-03	2.274e-04	  -86.24°	  -86.58°
    8   	8.000e+03	4.550e-04	7.001e-05	    6.83°	    6.49°
    9   	9.000e+03	1.410e-03	2.170e-04	  -83.95°	  -84.28°
   10   	1.000e+04	5.794e-04	8.915e-05	    8.51°	    8.17°
Total Harmonic Distortion: 0.048083%



Date: Mon Jul 28 10:03:08 2014
Total elapsed time: 1.491 seconds.

tnom = 27
temp = 27
method = modified trap
totiter = 25091
traniter = 23404
tranpoints = 10835
accept = 10502
rejected = 333
matrix size = 75
fillins = 278
solver = Alternate
Matrix Compiler1: 29,0 KB object code size  10.4/8.2/[6.3]
Matrix Compiler2: 13,1 KB object code size  3.0/3.4/[2.8]


